/*--------------------------------*- C++ -*----------------------------------*\
| =========                 |                                                 |
| \\      /  F ield         | OpenFOAM: The Open Source CFD Toolbox           |
|  \\    /   O peration     | Version:  1.6                                   |
|   \\  /    A nd           | Web:      www.OpenFOAM.org                      |
|    \\/     M anipulation  |                                                 |
\*---------------------------------------------------------------------------*/
FoamFile
{
    version     2.0;
    format      ascii;
    class       dictionary;
    location    "constant";
    object      transportProperties;
}
// * * * * * * * * * * * * * * * * * * * * * * * * * * * * * * * * * * * * * //

nu                  nu [ 0 2 -1 0 0 0 0 ]  2.e-5;

transportModel  Newtonian;

TaylorGreenVortex   true;

TaylorGreenDimension "3D";

Uinit               0.1; // Uinit [ 0 1 -1 0 0 0 0 ] 0.1;

L                   1.0; // L [ 0 1 0 0 0 0 0 ] 1.0;

// ************************************************************************* //
